Circuit: * C:\Users\axelp\OneDrive\Bureau\CESI - BLOC\BLOC - ELECTRONIQUE\StrongBox\Livrable 2\Draft1.asc

.OP point found by inspection.

Date: Mon Dec  4 09:07:59 2023
Total elapsed time: 0.114 seconds.

tnom = 27
temp = 27
method = trap
totiter = 0
traniter = 0
tranpoints = 0
accept = 0
rejected = 0
matrix size = 4
fillins = 0
solver = Normal
Avg thread counts: 20.0/0.0/0.0/2.7
Matrix Compiler1:       7 opcodes
Matrix Compiler2:      21 opcodes
